LTspice 24.0.12 for Windows
Circuit: * C:\ProjectsOpenSource\SimpleAnalogDimmer\LTspice_Project\SimulationSchematic.asc
Start Time: Thu Nov  6 17:07:52 2025
Error on line 21 : r:u1:1:_r1 u1:1:n02098 u1:1:trg 1.462* 0.342 
	 Unknown parameter "*"
solver = Normal
Maximum thread count: 12
tnom = 27
temp = 27
method = modified trap
Direct Newton iteration for .op point succeeded.
Total elapsed time: 0.145 seconds.

